powerflow/test/test_OH.glm
// $Id$
//
// Powerflow module self-test

#set include="../../core"
#include "../../core/rt/msvc_debugger.glm"

#include "assert.glm"

clock {
	timezone EST+5EDT;
	starttime '2000-01-01 00:00:00 EST';
}

module powerflow;

///////////////////////////////////////////////////////
// test 1: overhead line 
// A phase
object overhead_line {
	phases AN;
	length 300 ft;
	configuration object line_configuration {
		conductor_A object overhead_line_conductor {
			geometric_mean_radius 0.00446 ft;
			resistance 1.12 Ohm/mile;
			rating.summer.continuous 500;
		};
		conductor_N object overhead_line_conductor {
			geometric_mean_radius 0.00446 ft;
			resistance 1.12 Ohm/mile;
			rating.summer.continuous 500;
		};
		spacing object line_spacing {
			distance_AN 5.0249 ft;
		};
	};
	from object node {
		name OH_fA;
		phases AN;
		voltage_A 7200 + 0j;
		nominal_voltage 7200;
		maximum_voltage_error 1;
		
	};
	to object load {
		name OH_tA;
		phases AN;
		voltage_A 7200 + 0j;
		constant_current_A  1;
		constant_power_A 1500 + 750j;
		constant_impedance_A 1000 + 2000j;
		nominal_voltage 7200;
	//	maximum_voltage_error 1;		
		
	};
	object complex_assert {
		target "power_out";
		value 19.066 + 21.4836j;
		within 0.01;
	};		
};

///////////////////////////////////////////////////////
// B phase
object overhead_line {
	phases BN;
	length 300 ft;
	configuration object line_configuration {
		conductor_B object overhead_line_conductor {
			geometric_mean_radius 0.00446 ft;
			resistance 1.12 Ohm/mile;
			rating.summer.continuous 500;
		};
		conductor_N object overhead_line_conductor {
			geometric_mean_radius 0.00446 ft;
			resistance 1.12 Ohm/mile;
			rating.summer.continuous 500;
		};
		spacing object line_spacing {
			distance_BN 5.0249 ft;
		};
	};
	from object node {
		name OH_fB;
		phases BN;
		voltage_B -3600 - 6235.4j;
		nominal_voltage 7200;
		maximum_voltage_error 1;
		
	};
	to object load {
		name OH_tB;
		phases BN;
		voltage_B -3600 - 6235.4j;
		constant_current_B  -0.5-0.866j;
		constant_power_B 1500 + 750j;
		constant_impedance_B 1000 + 2000j;
		nominal_voltage 7200;
	//	maximum_voltage_error 1;		
		
	};
	object complex_assert {
		target "power_out";
		value 19.0663 + 21.4836j;
		within 0.01;
	};		
};


///////////////////////////////////////////////////////
// C phase
object overhead_line {
	phases CN;
	length 300 ft;
	configuration object line_configuration {
		conductor_C object overhead_line_conductor {
			geometric_mean_radius 0.00446 ft;
			resistance 1.12 Ohm/mile;
		};
		conductor_N object overhead_line_conductor {
			geometric_mean_radius 0.00446 ft;
			resistance 1.12 Ohm/mile;
		};
		spacing object line_spacing {
			distance_CN 5.0249 ft;
		};
	};
	from object node {
		name OH_fC;
		phases CN;
		voltage_C -3600 + 6235.4j;
		
	};
	to object load {
		name OH_tC;
		phases CN;		
		voltage_C -3600 + 6235.4j;
		constant_current_C  -0.5+0.866j;
		constant_power_C 1500 + 750j;
		constant_impedance_C 1000+2000j;		
	};
	object complex_assert {
		target "power_out";
		value 19.0663 + 21.4836j;
		within 0.01;
	};		
};


///////////////////////////////////////////////////////
// ABCN phase
object overhead_line {
	phases ABCN;
	length 300 ft;
	configuration object line_configuration {
		conductor_A object overhead_line_conductor {
			geometric_mean_radius 0.00446 ft;
			resistance 1.12 Ohm/mile;
		};
		conductor_B object overhead_line_conductor {
			geometric_mean_radius 0.00446 ft;
			resistance 1.12 Ohm/mile;
		};
		conductor_C object overhead_line_conductor {
			geometric_mean_radius 0.00446 ft;
			resistance 1.12 Ohm/mile;
		};
		conductor_N object overhead_line_conductor {
			geometric_mean_radius 0.00446 ft;
			resistance 1.12 Ohm/mile;
		};
		spacing object line_spacing {
			distance_AB 7 ft;
			distance_BC 7 ft;
			distance_AC 7 ft;
			distance_AN 5.0249 ft;
			distance_BN 5.0249 ft;
			distance_CN 5.0249 ft;			
		};
	};
	from object node {
		name OH_fABC;
		phases ABCN;
		voltage_A 7200 + 0j;		
		voltage_B -3600 - 6235.4j;
		voltage_C -3600 + 6235.4j;		
	};
	to object load {
		name OH_tABC;
		phases ABCN;
		voltage_A 7200 + 0j;		
		voltage_B -3600 - 6235.4j;
		voltage_C -3600 + 6235.4j;
		constant_current_A  1;
		constant_current_B  -0.5-0.866j;
		constant_current_C  -0.5+0.866j;
		constant_power_A 1500 + 750j;
		constant_power_B 1500 + 750j;
		constant_power_C 1500 + 750j;
		constant_impedance_A 1000+2000j;
		constant_impedance_B 1000+2000j;
		constant_impedance_C 1000+2000j;	
	};
	object complex_assert {
		target "power_out";
		value 57.200 + 64.453j;
		within 0.01;
	};	
};



